Circuit: * C:\Users\zacha\Downloads\senior_design_attenuator_offset.asc

Direct Newton iteration failed to find .op point.  (Use ".option noopiter" to skip.)
Starting Gmin stepping
Gmin = 10
Gmin = 1.07374
vernier = 0.5
vernier = 0.25
vernier = 0.125
vernier = 0.0625
vernier = 0.03125
Gmin = 1.0412
vernier = 0.015625
vernier = 0.0078125
Gmin = 1.0132
vernier = 0.00390625
vernier = 0.00195313
Gmin = 1.00827
vernier = 0.00260417
vernier = 0.00130208
Gmin = 1.00515
vernier = 0.000651042
vernier = 0.000868055
vernier = 0.000434028
Gmin = 1.00434
vernier = 0.000578703
vernier = 0.000434027
Gmin = 1.00339
Gmin = 0
Gmin stepping failed

Starting source stepping with srcstepmethod=0
Source Step = 3.0303%
Source Step = 23.4848%
Source Step = 25.7576%
vernier = 0.015625
Source Step = 26.0417%
Source Step = 26.5152%
Source Step = 26.9886%
Source Step = 27.4621%
Source Step = 27.9356%
vernier = 0.0234375
Source Step = 28.6222%
Source Step = 29.3324%
Source Step = 30.0426%
Source Step = 30.7528%
Source Step = 31.4631%
vernier = 0.0351563
Source Step = 32.4574%
Source Step = 33.5227%
Source Step = 34.5881%
Source Step = 35.6534%
Source Step = 36.7188%
vernier = 0.0527344
Source Step = 38.157%
Source Step = 39.755%
Source Step = 41.353%
Source Step = 42.951%
Source Step = 44.549%
vernier = 0.0791016
Source Step = 46.6264%
Source Step = 49.0234%
Source Step = 51.4205%
Source Step = 53.8175%
Source Step = 56.2145%
vernier = 0.118652
Source Step = 59.2108%
Source Step = 60.0198%
Source Step = 60.9186%
Source Step = 61.8175%
Source Step = 62.7164%
Source Step = 63.6153%
vernier = 0.0444946
Source Step = 64.8737%
Source Step = 66.222%
Source Step = 67.5704%
Source Step = 68.9187%
Source Step = 70.267%
vernier = 0.0667419
Source Step = 72.0872%
Source Step = 74.1097%
Source Step = 76.1322%
Source Step = 78.1547%
Source Step = 80.1772%
vernier = 0.100113
Source Step = 82.8064%
Source Step = 85.8401%
Source Step = 88.8738%
Source Step = 91.9076%
Source Step = 94.9413%
vernier = 0.150169
Source Step = 98.7335%
Source stepping succeeded in finding the operating point.


Date: Tue Mar 08 16:45:55 2022
Total elapsed time: 6.266 seconds.

tnom = 27
temp = 27
method = modified trap
totiter = 306791
traniter = 300034
tranpoints = 150018
accept = 150018
rejected = 0
matrix size = 39
fillins = 41
solver = Normal
Thread vector: 4.7/3.1[3] 2.2/1.7[3] 0.8/1.3[1] 0.2/0.3[1]  2592/500
Matrix Compiler1: 3.52 KB object code size  0.8/0.4/[0.2]
Matrix Compiler2: 4.38 KB object code size  0.3/0.4/[0.2]

